src/test/resources/com/farao_community/farao/flow_decomposition/NETWORK_HLBP.uct
##C 2007.05.01
This is a test network to replicate the HLBP example
Used to validate flow decomposition algorithm
##N
##ZA
A1    11              0 3 400.00 0.00000 0.00000 -600.00 -290.59 1000.00 -1000.0 1000.00 -1000.0
A2    11              0 2 400.00 0.00000 0.00000 0.00000 0.00000 1000.00 -1000.0 1000.00 -1000.0
##ZB
B1    11              0 2 400.00 0.00000 0.00000 -900.00 -435.89 1000.00 -1000.0 1000.00 -1000.0
B2    11              0 2 400.00 0.00000 130.000 0.00000 0.00000 1000.00 -1000.0 1000.00 -1000.0
B3    11              0 2 400.00 0.00000 0.00000 -600.00 -290.59 1000.00 -1000.0 1000.00 -1000.0
B4    11              0 2 400.00 0.00000 0.00000 0.00000 0.00000 1000.00 -1000.0 1000.00 -1000.0
B5    11              0 0        600.000 290.590 0.00000 0.00000
##ZC
C1    11              0 2 400.00 0.00000 0.00000 0.00000 0.00000 1000.00 -1000.0 1000.00 -1000.0
C2    11              0 0        300.000 -234.70 0.00000 0.00000
C3    11              0 0        600.000 290.590 0.00000 0.00000
C4    11              0 2 400.00 0.00000 0.00000 -400.00 -193.73 1000.00 -1000.0 1000.00 -1000.0
##ZD
D1    11              0 0        300.000 145.300 0.00000 0.00000
D2    11              0 0        900.000 435.890 0.00000 0.00000
D3    11              0 2 400.00 0.00000 0.00000 -100.00 48.4320 1000.00 -1000.0 1000.00 -1000.0
##ZN
N1    11              0 2 400.00 0.00000 0.00000 -200.00 -96.864 1000.00 -1000.0 1000.00 -1000.0
N2    11              0 0        100.000 48.4320 0.00000 0.00000
##ZX
X1    11              0 0        0.00000 0.00000 0.00000 0.00000
X2    11              0 0        0.00000 0.00000 0.00000 0.00000
X3    11              0 0        0.00000 0.00000 0.00000 0.00000
X4    11              0 0        0.00000 0.00000 0.00000 0.00000
X5    11              0 0        0.00000 0.00000 0.00000 0.00000
X6    11              0 0        0.00000 100.000 0.00000 0.00000
X7    11              0 0        0.00000 0.00000 0.00000 0.00000
##ZV
V1    11              0 2 400.00 0.00000 0.00000 600.000 290.590 600.000 600.000 290.590 290.590
##ZW
W2    11              0 2 400.00 0.00000 0.00000 -600.00 -290.59 -600.00 -600.00 -290.59 -290.59
##L
A1    11 X1    11 1 0 0.7500 8.75   -0.11350    480 LINE
X1    11 B1    11 1 0 0.7500 8.7500 -0.11350    480 LINE
B1    11 X2    11 1 0 0.7500 8.7500 -0.11350    480 LINE
X2    11 C1    11 1 0 0.7500 8.7500 -0.11350    480 LINE
B4    11 X3    11 1 0 0.7500 8.7500 -0.11350    480 LINE
X3    11 D1    11 1 0 0.7500 8.7500 -0.11350    480 LINE
C3    11 X4    11 1 0 0.7500 8.7500 -0.11350    480 LINE
X4    11 D2    11 1 0 0.7500 8.7500 -0.11350    480 LINE
C4    11 X5    11 1 0 0.7500 8.7500 -0.11350    480 LINE
X5    11 D2    11 1 0 0.7500 8.7500 -0.11350    480 LINE
B5    11 X6    11 1 0 0.7500 8.7500 -0.11350    480 LINE
X6    11 N1    11 1 0 0.7500 8.7500 -0.11350    480 LINE
D3    11 X7    11 1 0 0.7500 8.7500 -0.11350    480 LINE
X7    11 N2    11 1 0 0.7500 8.7500 -0.11350    480 LINE
A1    11 A2    11 1 0 1.5000 17.500 -0.05670    480 LINE
B1    11 B2    11 1 0 1.5000 17.500 -0.05670    480 LINE
B1    11 B4    11 1 0 1.5000 17.500 -0.05670    480 LINE
B2    11 B3    11 1 0 1.5000 17.500 -0.05670    480 LINE
B3    11 B5    11 1 0 1.5000 17.500 -0.05670    480 LINE
B4    11 B5    11 1 0 1.5000 17.500 -0.05670    480 LINE
C2    11 C3    11 1 0 1.5000 17.500 -0.05670    480 LINE
C2    11 C4    11 1 0 1.5000 17.500 -0.05670    480 LINE
D1    11 D2    11 1 0 1.5000 17.500 -0.05670    480 LINE
D1    11 D3    11 1 0 1.5000 17.500 -0.05670    480 LINE
N1    11 N2    11 1 0 1.5000 17.500 -0.05670    480 LINE
D2    11 D3    11 1 0 1.5000 17.500 -0.05670    480 LINE
A2    11 V1    11 1 0 0.0000 0.0010 -952.380    480 LINE
W2    11 C2    11 1 0 0.0000 0.0010 -952.380    480 LINE
##T
C1    11 C3    11 1 2 400.0 400.0 250.0 0.0000 64.000 -0.01560 0.0000   2000 PST
##R
C1    11 C3    11 1                    1.048 90.00 33  -3       SYMM


